go atlas

# Adding the meshings with higher density
mesh
x.m l=0.0 spac=0.5
x.m l=18.0 spac=0.5
y.m l=0.0 spac=0.5
y.m l=22.5 spac=0.05
y.m l=45.0 spac=0.25

region num=1 silicon

# Naming the P-Type Silicon Anode and N-Type Silicon Cathode
electrode top name=anode
electrode bottom name=cathode

# Step Junction Doping Concentration
doping uniform n.type conc=1e19 y.min=22.5 y.max=45.0
doping uniform p.type conc=1e19 y.min=0.0 y.max=22.5

# Physical Models
models srh conmob bgn auger fldmob k.p fermi incomplete consrh optr print

# Impact Ionization model
impact selb

# Adding newton numerical model 
method newton

# Solving the P-N junction in equilibrium
solve init

# Getting all the Carrier Concentrations and Energy bands and diagrams
output band.temp jdiffusion jdrift

save outf=pn_step_junction.str
tonyplot pn_step_junction.str

# Transient response simulation for Step Junction
log outf=pn_step_junction_transient.log
solve init

# Apply step voltage to the anode
solve vanode=0.0 vstep=0.1 ramptime=1e-9 tstop=1e-6 tstep=1e-12

quit
